@<TRIPOS>MOLECULE
lig
 43 47 0 0 0
SMALL
GASTEIGER

@<TRIPOS>ATOM
      1 O          -2.4589    4.9411   -0.5021 O.3     1  UNL11      -0.4526
      2 O          -3.6017    3.3830    0.9118 O.3     1  UNL11      -0.4526
      3 O           3.0445   -4.0892    0.1513 O.3     1  UNL11      -0.4907
      4 O           1.6021   -6.2064    1.2513 O.3     1  UNL11      -0.4914
      5 N           1.2011   -0.3583   -0.2097 N.ar    1  UNL11      -0.1961
      6 C           2.0086    0.6075   -0.9099 C.3     1  UNL11       0.1550
      7 C           1.3562    1.9696   -1.2591 C.3     1  UNL11       0.0330
      8 C          -0.0902   -0.1007    0.2785 C.ar    1  UNL11       0.2159
      9 C           0.0200    2.2171   -0.6707 C.ar    1  UNL11      -0.0243
     10 C          -0.6846    1.2293    0.1171 C.ar    1  UNL11       0.0533
     11 C           1.8590   -1.5551   -0.0873 C.ar    1  UNL11       0.1831
     12 C          -0.8043   -1.1603    0.9224 C.ar    1  UNL11       0.0183
     13 C           1.1746   -2.6150    0.5473 C.ar    1  UNL11       0.0909
     14 C          -0.1632   -2.4093    1.0543 C.ar    1  UNL11      -0.0022
     15 C          -0.5113    3.5074   -0.9505 C.ar    1  UNL11      -0.0120
     16 C          -1.9442    1.5926    0.7049 C.ar    1  UNL11      -0.0025
     17 C          -1.7693    3.7933   -0.3721 C.ar    1  UNL11       0.1665
     18 C          -2.4474    2.8825    0.4398 C.ar    1  UNL11       0.1670
     19 C           1.7930   -3.8968    0.6196 C.ar    1  UNL11       0.1748
     20 C          -0.8773   -3.4773    1.6696 C.ar    1  UNL11      -0.0499
     21 C           1.0542   -4.9736    1.2008 C.ar    1  UNL11       0.1623
     22 C          -3.6473    4.6660    0.2632 C.3     1  UNL11       0.2332
     23 C          -0.2564   -4.7626    1.7290 C.ar    1  UNL11      -0.0157
     24 C           3.9812   -3.8484    1.1910 C.3     1  UNL11       0.0790
     25 C           1.2661   -6.9224    0.0719 C.3     1  UNL11       0.0790
     26 H           2.4123    0.1552   -1.8157 H       1  UNL11       0.1034
     27 H           2.8742    0.7728   -0.2684 H       1  UNL11       0.1034
     28 H           1.3023    2.0796   -2.3422 H       1  UNL11       0.0375
     29 H           2.0210    2.7904   -0.9901 H       1  UNL11       0.0375
     30 H           2.8079   -1.6754   -0.4417 H       1  UNL11       0.1384
     31 H          -1.7502   -1.0163    1.2760 H       1  UNL11       0.0690
     32 H          -0.0158    4.1834   -1.5318 H       1  UNL11       0.0658
     33 H          -2.4579    0.9382    1.2951 H       1  UNL11       0.0663
     34 H          -1.8085   -3.3281    2.0582 H       1  UNL11       0.0625
     35 H          -4.5188    4.7123   -0.3898 H       1  UNL11       0.1166
     36 H          -3.8109    5.4534    0.9991 H       1  UNL11       0.1166
     37 H          -0.7569   -5.5423    2.1555 H       1  UNL11       0.0655
     38 H           4.9916   -4.0037    0.8129 H       1  UNL11       0.0660
     39 H           3.7925   -4.5352    2.0162 H       1  UNL11       0.0660
     40 H           3.8785   -2.8217    1.5421 H       1  UNL11       0.0660
     41 H           1.7084   -7.9177    0.1126 H       1  UNL11       0.0660
     42 H           0.1822   -7.0093   -0.0040 H       1  UNL11       0.0660
     43 H           1.6496   -6.3896   -0.7983 H       1  UNL11       0.0660
@<TRIPOS>BOND
     1     1    17    1
     2     1    22    1
     3     2    18    1
     4     2    22    1
     5     3    19    1
     6     3    24    1
     7     4    21    1
     8     4    25    1
     9     5     6    1
    10     5     8   ar
    11     5    11   ar
    12     6     7    1
    13     6    26    1
    14     6    27    1
    15     7     9    1
    16     7    28    1
    17     7    29    1
    18     8    10    1
    19     8    12   ar
    20     9    10   ar
    21     9    15   ar
    22    10    16   ar
    23    11    13   ar
    24    11    30    1
    25    12    14   ar
    26    12    31    1
    27    13    14   ar
    28    13    19   ar
    29    14    20   ar
    30    15    17   ar
    31    15    32    1
    32    16    18   ar
    33    16    33    1
    34    17    18   ar
    35    19    21   ar
    36    20    23   ar
    37    20    34    1
    38    21    23   ar
    39    22    35    1
    40    22    36    1
    41    23    37    1
    42    24    38    1
    43    24    39    1
    44    24    40    1
    45    25    41    1
    46    25    42    1
    47    25    43    1
